#======================================================================

# CRYSTAL DATA

#----------------------------------------------------------------------

data_VESTA_phase_1


_chemical_name_common                  'barium cobalt hexairon(iii) oxide'
_cell_length_a                         5.894(1)
_cell_length_b                         5.894(1)
_cell_length_c                         43.742(6)
_cell_angle_alpha                      90
_cell_angle_beta                       90
_cell_angle_gamma                      120
_space_group_name_H-M_alt              'R -3 m'
_space_group_IT_number                 166

loop_
_space_group_symop_operation_xyz
   'x, y, z'
   '-x, -y, -z'
   '-y, x-y, z'
   'y, -x+y, -z'
   '-x+y, -x, z'
   'x-y, x, -z'
   'y, x, -z'
   '-y, -x, z'
   'x-y, -y, -z'
   '-x+y, y, z'
   '-x, -x+y, -z'
   'x, x-y, z'
   'x+2/3, y+1/3, z+1/3'
   '-x+2/3, -y+1/3, -z+1/3'
   '-y+2/3, x-y+1/3, z+1/3'
   'y+2/3, -x+y+1/3, -z+1/3'
   '-x+y+2/3, -x+1/3, z+1/3'
   'x-y+2/3, x+1/3, -z+1/3'
   'y+2/3, x+1/3, -z+1/3'
   '-y+2/3, -x+1/3, z+1/3'
   'x-y+2/3, -y+1/3, -z+1/3'
   '-x+y+2/3, y+1/3, z+1/3'
   '-x+2/3, -x+y+1/3, -z+1/3'
   'x+2/3, x-y+1/3, z+1/3'
   'x+1/3, y+2/3, z+2/3'
   '-x+1/3, -y+2/3, -z+2/3'
   '-y+1/3, x-y+2/3, z+2/3'
   'y+1/3, -x+y+2/3, -z+2/3'
   '-x+y+1/3, -x+2/3, z+2/3'
   'x-y+1/3, x+2/3, -z+2/3'
   'y+1/3, x+2/3, -z+2/3'
   '-y+1/3, -x+2/3, z+2/3'
   'x-y+1/3, -y+2/3, -z+2/3'
   '-x+y+1/3, y+2/3, z+2/3'
   '-x+1/3, -x+y+2/3, -z+2/3'
   'x+1/3, x-y+2/3, z+2/3'

loop_
   _atom_site_label
   _atom_site_occupancy
   _atom_site_fract_x
   _atom_site_fract_y
   _atom_site_fract_z
   _atom_site_adp_type
   _atom_site_B_iso_or_equiv
   _atom_site_type_symbol
   Ba1        1.0     0.000000      0.000000      0.2993(7)    Biso  1.000000 Ba
   Fe1        1.0     0.000000      0.000000      0.3776(4)    Biso  1.000000 Fe
   Co1        0.2700  0.000000      0.000000      0.1510(5)    Biso  1.000000 Co
   Fe2        0.7300  0.000000      0.000000      0.1510(5)    Biso  1.000000 Fe
   Fe3        1.0     0.000000      0.000000      0.0651(4)    Biso  1.000000 Fe
   Co2        0.0900  0.000000      0.000000      0.500000     Biso  1.000000 Co
   Fe4        0.9100  0.000000      0.000000      0.500000     Biso  1.000000 Fe
   Co3        0.2000  0.5022(9)    -0.5022(9)     0.1092(2)    Biso  1.000000 Co
   Fe5        0.8000  0.5022(9)    -0.5022(9)     0.1092(2)    Biso  1.000000 Fe
   Co4        0.1800  0.000000      0.000000      0.000000     Biso  1.000000 Co
   Fe6        0.8200  0.000000      0.000000      0.000000     Biso  1.000000 Fe
   O1         1.0     0.000000      0.000000      0.4203(4)    Biso  1.000000 O
   O2         1.0     0.000000      0.000000      0.1962(7)    Biso  1.000000 O
   O3         1.0     0.156(2)     -0.156(2)      0.0288(4)    Biso  1.000000 O
   O4         1.0     0.8284(10)   -0.8284(10)    0.0852(4)    Biso  1.000000 O
   O5         1.0     0.1794(16)   -0.1794(16)    0.1378(2)    Biso  1.000000 O
